%%%%%%%%%%%%%%%%%%%%%%%%%%%%%%%%%%%%%%%%%%%%%%%%%%%%%%%%%%%%%%%%%%%%%%%%%%%%%%%%
%                                                                              %
% PanATS configuration file                                                    %
% Case description: blunt cone hypersonic aerodynamic analysis                 %
% File Version 3.5.0 "hypersonic"                                              %
%                                                                              %
%%%%%%%%%%%%%%%%%%%%%%%%%%%%%%%%%%%%%%%%%%%%%%%%%%%%%%%%%%%%%%%%%%%%%%%%%%%%%%%%

% ------------- DIRECT, ADJOINT, AND LINEARIZED PROBLEM DEFINITION ------------%

% Solver type (PANEL_INVISCID, PANEL_VISCID)
SOLVER= PANEL_VISCID

% Angle of attack (degrees)
AOA= 0.0
% Side-slip angle (degrees, only for compressible flows)
SIDESLIP_ANGLE= 0.0

% Mach number (non-dimensional, based on the free-stream values)
MACH_NUMBER= 10.6
% Free-stream temperature (288.15 K by default)
FREESTREAM_TEMPERATURE= 58.2176
% Free-stream pressure (101325.0 N/m^2, 2116.216 psf by default)
FREESTREAM_PRESSURE= 132

% Ratio of specific heats
GAMMA_VALUE= 1.4

% ---------------------- REFERENCE VALUE DEFINITION ---------------------------%

% Reference origin for moment computation
REF_ORIGIN_MOMENT_X= 0.00
REF_ORIGIN_MOMENT_Y= 0.00
REF_ORIGIN_MOMENT_Z= 0.00
% Reference length for pitching, rolling, and yawing non-dimensional moment
REF_LENGTH= 0.5687
% Reference area for force coefficients (0 implies automatic calculation)
REF_AREA= 1

% Navier-Stokes wall boundary marker(s) (NONE= no marker) constant wall temperature
MARKER_ISOTHERMAL= 300
% Symmetry faca
SYMMETRY= ZOX
% Marker(s) of the surface where the functional (Cd, Cl, etc.) will be evaluated, The STL format can be left blank
MARKER_MONITORING= ( BLUNT )

% ------------------------- INPUT/OUTPUT INFORMATION --------------------------%

% Mesh input file
MESH_FILENAME= blunt_cone.su2
% Mesh input file format (SU2, STL, INP, WGS, CGNS)
MESH_FORMAT= SU2

% Files to output ( SURFACE_CSV, SURFACE_TECPLOT )
OUTPUT_FILES= ( SURFACE_TECPLOT )