% Angle of attack (degrees), default is 0.0
AOA = 10.0;
% Side-slip angle (degrees, only for compressible flows), default is 0.0
SIDESLIP_ANGLE = 0.0;

% 0.32E-6
% Mach number (non-dimensional, based on the free-stream values)
MACH_NUMBER = 5.83;
% Free-stream temperature (288.15 K by default)
FREESTREAM_TEMPERATURE = 317.0389;
% Free-stream pressure (101325.0 N/m^2, 2116.216 psf by default)
FREESTREAM_PRESSURE = 172.368932;

%  1.09E-6
% Mach number (non-dimensional, based on the free-stream values)
MACH_NUMBER = 5.95;
% Free-stream temperature (288.15 K by default)
% FREESTREAM_TEMPERATURE = 317.5944;
% Free-stream pressure (101325.0 N/m^2, 2116.216 psf by default)
% FREESTREAM_PRESSURE = 579.159612;

% Air ratio of Specific Heat
GAMMA_VALUE = 1.4;

% Reference origin for moment computation
REF_ORIGIN_MOMENT_X = 7.9248;
REF_ORIGIN_MOMENT_Y = 0.00;
REF_ORIGIN_MOMENT_Z = 0.00;
% Reference length for pitching, rolling, and yawing non-dimensional moment
REF_LENGTH = 14.6558;
% Reference area for force coefficients (0 implies automatic calculation)
REF_AREA = 76.8386;

% Navier-Stokes wall boundary marker(s) (NONE = no marker) constant wall temperature
MARKER_ISOTHERMAL = 300;

% Symmetry faca
SYMMETRY = ('ZOX');

% Marker(s) of the surface where the functional (Cd, Cl, etc.) will be evaluated, The STL format can be left blank
% if is 0, all markers of surface will be evaluated
MARKER_MONITORING = 0;
% Mesh input file
MESH_FILENAME = 'HL20.stl';
% Mesh input file format (SU2, STL, INP, WGS, CGNS)
MESH_FORMAT = 'STL'
