%%%%%%%%%%%%%%%%%%%%%%%%%%%%%%%%%%%%%%%%%%%%%%%%%%%%%%%%%%%%%%%%%%%%%%%%%%%%%%%%
%                                                                              %
% PanATS configuration file                                                    %
% Case description: Waverider hypersonic aerodynamic analysis                  %
% File Version 3.5.0 "hypersonic"                                              %
%                                                                              %
%%%%%%%%%%%%%%%%%%%%%%%%%%%%%%%%%%%%%%%%%%%%%%%%%%%%%%%%%%%%%%%%%%%%%%%%%%%%%%%%

% ------------- DIRECT, ADJOINT, AND LINEARIZED PROBLEM DEFINITION ------------%

% Mach number (non-dimensional, based on the free-stream values)
MACH_NUMBER = 8.0
% Angle of attack (degrees), default is 0.0
AOA = 8.0
% Side-slip angle (degrees, only for compressible flows), default is 0.0
SIDESLIP_ANGLE = 0.0
% Free-stream temperature (288.15 K by default)
FREESTREAM_TEMPERATURE = 251.1
% Free-stream pressure (101325.0 N/m^2, 2116.216 psf by default)
FREESTREAM_PRESSURE = 276.8

% Ratio of specific heats
GAMMA_VALUE = 1.4

% ---------------------- REFERENCE VALUE DEFINITION ---------------------------%

% Reference origin for moment computation
REF_ORIGIN_MOMENT_X = 0.00
REF_ORIGIN_MOMENT_Y = 0.00
REF_ORIGIN_MOMENT_Z = 0.00
% Reference length for pitching, rolling, and yawing non-dimensional moment
REF_LENGTH = 1
% Reference area for force coefficients (0 implies automatic calculation)
REF_AREA = 1

% ----------------------- BOUNDARY CONDITION DEFINITION -----------------------%

% Navier-Stokes wall boundary marker(s) (NONE = no marker) constant wall temperature
MARKER_ISOTHERMAL = 300
% Symmetry faca
% SYMMETRY = ZOX

% ------------------------- INPUT/OUTPUT INFORMATION --------------------------%

% Mesh input file
% MESH_FILENAME = 'waverider.stl'
% Mesh input file format (SU2, STL, INP, WGS, CGNS)
% MESH_FORMAT = 'STL'

% Files to output
OUTPUT_FILES = (SURFACE_TECPLOT)

% Mesh zoom size, mesh input data will be zoom by MESH_SCALE
MESH_SCALE = 0.001
% Mesh input file
MESH_FILENAME = 'waverider_cone.stl'
% Mesh input file format (SU2, STL, INP, WGS, CGNS)
MESH_FORMAT = 'STL'
