% Mach number (non-dimensional, based on the free-stream values)
MACH_NUMBER = 10.6;
% Free-stream pressure (101325.0 N/m^2, 2116.216 psf by default)
FREESTREAM_PRESSURE = 132;
% Free-stream temperature (288.15 K by default)
FREESTREAM_TEMPERATURE = 47.3397;
% Angle of attack (degrees)
AOA = 0.0;
% Side-slip angle (degrees, only for compressible flows)
SIDESLIP_ANGLE = 0.0;

% Reynolds number (non-dimensional, based on the free-stream values) Reynolds length (1 m by default)
REYNOLDS_NUMBER = 9.35E6;
% Air ratio of Specific Heat
GAMMA_VALUE = 1.4;

% Navier-Stokes wall boundary marker(s) (NONE = no marker) constant wall temperature
MARKER_ISOTHERMAL = 300;

% Reference origin for moment computation
REF_ORIGIN_MOMENT_X = 0.125;
REF_ORIGIN_MOMENT_Y = 0.00;
REF_ORIGIN_MOMENT_Z = 0;
% Reference length for pitching, rolling, and yawing non-dimensional moment
REF_LENGTH = 0.177;
% Reference area for force coefficients (0 implies automatic calculation)
REF_AREA = 1;

% Symmetry faca
SYMMETRY = 'ZOX';

% Marker(s) of the surface where the functional (Cd, Cl, etc.) will be evaluated, The STL format can be left blank
MARKER_MONITORING = { 'BLUNT' };
% Mesh input file
MESH_FILENAME = 'blunt_cone.su2';
% Mesh input file format (SU2, STL, INP)
MESH_FORMAT = 'SU2'