% Marker(s) of the surface where the functional (Cd, Cl, etc.) will be evaluated, The STL format can be left blank
MARKER_MONITORING = { 'Part-plate' };
% Mesh input file
MESH_FILENAME = 'plate.inp';
% Mesh input file format (SU2, STL, INP, WGS)
MESH_FORMAT =  'INP';