% Mesh input file, if multi STL input, MARKER_MONITORING should specify STL file names functional will be evaluated
MESH_FILENAME = 'sphere.stl';
% Mesh input file format (SU2, STL, INP)
MESH_FORMAT = 'STL'