% Mesh input file
MESH_FILENAME = 'Job-1.inp';
% Mesh input file format (SU2, STL, INP)
MESH_FORMAT =  'INP';