% Marker(s) of the surface where the functional (Cd, Cl, etc.) will be evaluated, The STL format can be left blank
MARKER_MONITORING = { 'Part-1' };
% Mesh input file
MESH_FILENAME = 'Job-1.inp';
% Mesh input file format (SU2, STL, INP)
MESH_FORMAT =  'INP';